/*--------------------------------*- C++ -*----------------------------------*\
| =========                 |                                                 |
| \\      /  F ield         | OpenFOAM: The Open Source CFD Toolbox           |
|  \\    /   O peration     | Version:  2306                                  |
|   \\  /    A nd           | Website:  www.openfoam.com                      |
|    \\/     M anipulation  |                                                 |
\*---------------------------------------------------------------------------*/
FoamFile
{
    version     2.0;
    format      ascii;
    arch        "LSB;label=32;scalar=64";
    class       extendedFeatureEdgeMesh;
    location    "constant/extendedFeatureEdgeMesh";
    object      Airfoil_0.extendedFeatureEdgeMesh;
}
// * * * * * * * * * * * * * * * * * * * * * * * * * * * * * * * * * * * * * //

// points

794
(
(1.99295 -0.174361 -0.1)
(1.99295 -0.174361 0.1)
(1.9917 -0.17245 -0.1)
(1.99139 -0.176025 -0.1)
(1.9917 -0.17245 0.1)
(1.99002 -0.171388 -0.1)
(1.98955 -0.17678 -0.1)
(1.98764 -0.170245 -0.1)
(1.98701 -0.177492 -0.1)
(1.99002 -0.171388 0.1)
(1.98457 -0.169017 -0.1)
(1.98377 -0.178167 -0.1)
(1.98764 -0.170245 0.1)
(1.9808 -0.167698 -0.1)
(1.97983 -0.178812 -0.1)
(1.98457 -0.169017 0.1)
(1.97634 -0.166281 -0.1)
(1.97519 -0.179432 -0.1)
(1.9808 -0.167698 0.1)
(1.97119 -0.164762 -0.1)
(1.96985 -0.180034 -0.1)
(1.97634 -0.166281 0.1)
(1.96535 -0.163135 -0.1)
(1.96382 -0.180623 -0.1)
(1.97119 -0.164762 0.1)
(1.95884 -0.161394 -0.1)
(1.9571 -0.181206 -0.1)
(1.96535 -0.163135 0.1)
(1.95164 -0.159535 -0.1)
(1.9497 -0.181788 -0.1)
(1.95884 -0.161394 0.1)
(1.94378 -0.157552 -0.1)
(1.94161 -0.182375 -0.1)
(1.95164 -0.159535 0.1)
(1.93525 -0.155442 -0.1)
(1.93284 -0.182973 -0.1)
(1.94378 -0.157552 0.1)
(1.92606 -0.153198 -0.1)
(1.92341 -0.183587 -0.1)
(1.93525 -0.155442 0.1)
(1.91622 -0.150818 -0.1)
(1.9133 -0.184222 -0.1)
(1.92606 -0.153198 0.1)
(1.90574 -0.148296 -0.1)
(1.90253 -0.184884 -0.1)
(1.91622 -0.150818 0.1)
(1.89461 -0.14563 -0.1)
(1.89111 -0.185578 -0.1)
(1.90574 -0.148296 0.1)
(1.88285 -0.142815 -0.1)
(1.87904 -0.186308 -0.1)
(1.89461 -0.14563 0.1)
(1.87046 -0.139848 -0.1)
(1.86633 -0.187079 -0.1)
(1.88285 -0.142815 0.1)
(1.85746 -0.136726 -0.1)
(1.85298 -0.187895 -0.1)
(1.87046 -0.139848 0.1)
(1.84385 -0.133446 -0.1)
(1.83901 -0.188762 -0.1)
(1.85746 -0.136726 0.1)
(1.82963 -0.130006 -0.1)
(1.82441 -0.189682 -0.1)
(1.84385 -0.133446 0.1)
(1.81483 -0.126402 -0.1)
(1.80921 -0.19066 -0.1)
(1.82963 -0.130006 0.1)
(1.79944 -0.122634 -0.1)
(1.7934 -0.191698 -0.1)
(1.81483 -0.126402 0.1)
(1.78348 -0.118699 -0.1)
(1.77699 -0.192801 -0.1)
(1.79944 -0.122634 0.1)
(1.76695 -0.114597 -0.1)
(1.76001 -0.193972 -0.1)
(1.78348 -0.118699 0.1)
(1.74987 -0.110324 -0.1)
(1.74244 -0.195213 -0.1)
(1.76695 -0.114597 0.1)
(1.73224 -0.105882 -0.1)
(1.72431 -0.196527 -0.1)
(1.74987 -0.110324 0.1)
(1.71408 -0.101269 -0.1)
(1.70562 -0.197916 -0.1)
(1.73224 -0.105882 0.1)
(1.69539 -0.096485 -0.1)
(1.68639 -0.199383 -0.1)
(1.71408 -0.101269 0.1)
(1.67619 -0.0915297 -0.1)
(1.66662 -0.200928 -0.1)
(1.69539 -0.096485 0.1)
(1.65648 -0.0864035 -0.1)
(1.64632 -0.202555 -0.1)
(1.67619 -0.0915297 0.1)
(1.63629 -0.0811069 -0.1)
(1.62551 -0.204263 -0.1)
(1.65648 -0.0864035 0.1)
(1.6156 -0.0756408 -0.1)
(1.60419 -0.206055 -0.1)
(1.63629 -0.0811069 0.1)
(1.59445 -0.0700063 -0.1)
(1.58238 -0.20793 -0.1)
(1.6156 -0.0756408 0.1)
(1.57283 -0.0642047 -0.1)
(1.56009 -0.20989 -0.1)
(1.59445 -0.0700063 0.1)
(1.55076 -0.0582376 -0.1)
(1.53732 -0.211935 -0.1)
(1.57283 -0.0642047 0.1)
(1.52826 -0.052107 -0.1)
(1.51409 -0.214064 -0.1)
(1.55076 -0.0582376 0.1)
(1.50532 -0.045815 -0.1)
(1.49041 -0.216278 -0.1)
(1.52826 -0.052107 0.1)
(1.48197 -0.039364 -0.1)
(1.46629 -0.218576 -0.1)
(1.50532 -0.045815 0.1)
(1.45821 -0.0327567 -0.1)
(1.44175 -0.220957 -0.1)
(1.48197 -0.039364 0.1)
(1.43406 -0.025996 -0.1)
(1.41679 -0.22342 -0.1)
(1.45821 -0.0327567 0.1)
(1.40952 -0.0190851 -0.1)
(1.39142 -0.225965 -0.1)
(1.43406 -0.025996 0.1)
(1.38461 -0.0120272 -0.1)
(1.36566 -0.22859 -0.1)
(1.40952 -0.0190851 0.1)
(1.35934 -0.00482594 -0.1)
(1.33952 -0.231294 -0.1)
(1.38461 -0.0120272 0.1)
(1.33371 0.00251484 -0.1)
(1.31301 -0.234073 -0.1)
(1.35934 -0.00482594 0.1)
(1.30775 0.00999117 -0.1)
(1.28614 -0.236927 -0.1)
(1.33371 0.00251484 0.1)
(1.28145 0.0175989 -0.1)
(1.25893 -0.239854 -0.1)
(1.30775 0.00999117 0.1)
(1.25484 0.0253336 -0.1)
(1.23138 -0.24285 -0.1)
(1.28145 0.0175989 0.1)
(1.22792 0.0331907 -0.1)
(1.20351 -0.245913 -0.1)
(1.25484 0.0253336 0.1)
(1.20071 0.0411656 -0.1)
(1.17532 -0.249041 -0.1)
(1.22792 0.0331907 0.1)
(1.17321 0.0492533 -0.1)
(1.14683 -0.252231 -0.1)
(1.20071 0.0411656 0.1)
(1.14543 0.0574489 -0.1)
(1.11806 -0.255479 -0.1)
(1.17321 0.0492533 0.1)
(1.11739 0.0657472 -0.1)
(1.089 -0.258782 -0.1)
(1.14543 0.0574489 0.1)
(1.0891 0.0741428 -0.1)
(1.05968 -0.262137 -0.1)
(1.11739 0.0657472 0.1)
(1.06056 0.0826304 -0.1)
(1.0301 -0.26554 -0.1)
(1.0891 0.0741428 0.1)
(1.03179 0.0912043 -0.1)
(1.00028 -0.268987 -0.1)
(1.06056 0.0826304 0.1)
(1.0028 0.0998591 -0.1)
(0.970221 -0.272476 -0.1)
(1.03179 0.0912043 0.1)
(0.973589 0.108589 -0.1)
(0.939942 -0.276001 -0.1)
(1.0028 0.0998591 0.1)
(0.944178 0.117388 -0.1)
(0.90945 -0.279559 -0.1)
(0.973589 0.108589 0.1)
(0.914574 0.12625 -0.1)
(0.878756 -0.283146 -0.1)
(0.944178 0.117388 0.1)
(0.884786 0.13517 -0.1)
(0.847872 -0.286758 -0.1)
(0.914574 0.12625 0.1)
(0.854824 0.144141 -0.1)
(0.816807 -0.29039 -0.1)
(0.884786 0.13517 0.1)
(0.824697 0.153158 -0.1)
(0.785573 -0.294038 -0.1)
(0.854824 0.144141 0.1)
(0.794416 0.162213 -0.1)
(0.754179 -0.297698 -0.1)
(0.824697 0.153158 0.1)
(0.763988 0.171302 -0.1)
(0.722635 -0.301365 -0.1)
(0.794416 0.162213 0.1)
(0.733423 0.180417 -0.1)
(0.690952 -0.305034 -0.1)
(0.763988 0.171302 0.1)
(0.702731 0.189553 -0.1)
(0.65914 -0.308701 -0.1)
(0.733423 0.180417 0.1)
(0.67192 0.198704 -0.1)
(0.627208 -0.312362 -0.1)
(0.702731 0.189553 0.1)
(0.640999 0.207862 -0.1)
(0.595166 -0.316012 -0.1)
(0.67192 0.198704 0.1)
(0.609976 0.217022 -0.1)
(0.563024 -0.319647 -0.1)
(0.640999 0.207862 0.1)
(0.578861 0.226179 -0.1)
(0.530791 -0.323261 -0.1)
(0.609976 0.217022 0.1)
(0.547661 0.235324 -0.1)
(0.498477 -0.32685 -0.1)
(0.578861 0.226179 0.1)
(0.516384 0.244454 -0.1)
(0.46609 -0.330409 -0.1)
(0.547661 0.235324 0.1)
(0.48504 0.25356 -0.1)
(0.433641 -0.333934 -0.1)
(0.516384 0.244454 0.1)
(0.453635 0.262637 -0.1)
(0.401137 -0.33742 -0.1)
(0.48504 0.25356 0.1)
(0.422178 0.27168 -0.1)
(0.368588 -0.340863 -0.1)
(0.453635 0.262637 0.1)
(0.390677 0.280681 -0.1)
(0.336002 -0.344258 -0.1)
(0.422178 0.27168 0.1)
(0.35914 0.289636 -0.1)
(0.303389 -0.3476 -0.1)
(0.390677 0.280681 0.1)
(0.327573 0.298538 -0.1)
(0.270756 -0.350885 -0.1)
(0.35914 0.289636 0.1)
(0.295984 0.307381 -0.1)
(0.238112 -0.354108 -0.1)
(0.327573 0.298538 0.1)
(0.264382 0.316159 -0.1)
(0.205465 -0.357266 -0.1)
(0.295984 0.307381 0.1)
(0.232772 0.324868 -0.1)
(0.172823 -0.360353 -0.1)
(0.264382 0.316159 0.1)
(0.201163 0.3335 -0.1)
(0.140195 -0.363365 -0.1)
(0.232772 0.324868 0.1)
(0.169561 0.342051 -0.1)
(0.107588 -0.366299 -0.1)
(0.201163 0.3335 0.1)
(0.137973 0.350515 -0.1)
(0.0750106 -0.369149 -0.1)
(0.169561 0.342051 0.1)
(0.106406 0.358887 -0.1)
(0.0424695 -0.371912 -0.1)
(0.137973 0.350515 0.1)
(0.074867 0.367162 -0.1)
(0.00997263 -0.374584 -0.1)
(0.106406 0.358887 0.1)
(0.0433622 0.375334 -0.1)
(-0.0224725 -0.377161 -0.1)
(0.074867 0.367162 0.1)
(0.0118983 0.383397 -0.1)
(-0.0548587 -0.379639 -0.1)
(0.0433622 0.375334 0.1)
(-0.0195182 0.391348 -0.1)
(-0.0871785 -0.382014 -0.1)
(0.0118983 0.383397 0.1)
(-0.0508809 0.399181 -0.1)
(-0.119425 -0.384282 -0.1)
(-0.0195182 0.391348 0.1)
(-0.0821836 0.406892 -0.1)
(-0.151591 -0.386439 -0.1)
(-0.0508809 0.399181 0.1)
(-0.11342 0.414475 -0.1)
(-0.18367 -0.388483 -0.1)
(-0.0821836 0.406892 0.1)
(-0.144584 0.421927 -0.1)
(-0.215655 -0.39041 -0.1)
(-0.11342 0.414475 0.1)
(-0.17567 0.429242 -0.1)
(-0.247538 -0.392216 -0.1)
(-0.144584 0.421927 0.1)
(-0.206672 0.436416 -0.1)
(-0.279315 -0.393898 -0.1)
(-0.17567 0.429242 0.1)
(-0.237583 0.443446 -0.1)
(-0.310977 -0.395453 -0.1)
(-0.206672 0.436416 0.1)
(-0.268398 0.450326 -0.1)
(-0.342519 -0.396878 -0.1)
(-0.237583 0.443446 0.1)
(-0.299112 0.457053 -0.1)
(-0.373935 -0.398169 -0.1)
(-0.268398 0.450326 0.1)
(-0.329719 0.463624 -0.1)
(-0.405217 -0.399325 -0.1)
(-0.299112 0.457053 0.1)
(-0.329719 0.463624 0.1)
(-0.360212 0.470034 -0.1)
(-0.43636 -0.400342 -0.1)
(-0.390588 0.476279 -0.1)
(-0.467359 -0.401218 -0.1)
(-0.360212 0.470034 0.1)
(-0.390588 0.476279 0.1)
(-0.498206 -0.40195 -0.1)
(-0.420839 0.482356 -0.1)
(-0.450962 0.488262 -0.1)
(-0.528896 -0.402536 -0.1)
(-0.420839 0.482356 0.1)
(-0.450962 0.488262 0.1)
(-0.559424 -0.402973 -0.1)
(-0.48095 0.493994 -0.1)
(-0.510798 0.499548 -0.1)
(-0.48095 0.493994 0.1)
(-0.589783 -0.403259 -0.1)
(-0.510798 0.499548 0.1)
(-0.619968 -0.403393 -0.1)
(-0.540501 0.504921 -0.1)
(-0.570055 0.51011 -0.1)
(-0.649974 -0.403371 -0.1)
(-0.540501 0.504921 0.1)
(-0.599453 0.515113 -0.1)
(-0.679795 -0.403193 -0.1)
(-0.570055 0.51011 0.1)
(-0.628692 0.519927 -0.1)
(-0.709425 -0.402857 -0.1)
(-0.599453 0.515113 0.1)
(-0.628692 0.519927 0.1)
(-0.738859 -0.40236 -0.1)
(-0.657765 0.524549 -0.1)
(-0.686669 0.528977 -0.1)
(-0.768093 -0.401702 -0.1)
(-0.657765 0.524549 0.1)
(-0.715398 0.533209 -0.1)
(-0.686669 0.528977 0.1)
(-0.79712 -0.400881 -0.1)
(-0.743948 0.537242 -0.1)
(-0.715398 0.533209 0.1)
(-0.825937 -0.399895 -0.1)
(-0.772313 0.541075 -0.1)
(-0.854537 -0.398744 -0.1)
(-0.743948 0.537242 0.1)
(-0.80049 0.544706 -0.1)
(-0.882916 -0.397427 -0.1)
(-0.772313 0.541075 0.1)
(-0.828474 0.548132 -0.1)
(-0.911069 -0.395942 -0.1)
(-0.80049 0.544706 0.1)
(-0.856259 0.551353 -0.1)
(-0.938992 -0.394288 -0.1)
(-0.828474 0.548132 0.1)
(-0.883842 0.554366 -0.1)
(-0.966679 -0.392466 -0.1)
(-0.856259 0.551353 0.1)
(-0.911218 0.55717 -0.1)
(-0.994126 -0.390474 -0.1)
(-0.883842 0.554366 0.1)
(-0.938383 0.559764 -0.1)
(-1.02133 -0.388312 -0.1)
(-0.911218 0.55717 0.1)
(-0.965331 0.562147 -0.1)
(-1.04828 -0.385979 -0.1)
(-0.938383 0.559764 0.1)
(-0.99206 0.564318 -0.1)
(-1.07498 -0.383475 -0.1)
(-0.965331 0.562147 0.1)
(-1.01856 0.566275 -0.1)
(-1.10142 -0.380801 -0.1)
(-0.99206 0.564318 0.1)
(-1.04484 0.568019 -0.1)
(-1.1276 -0.377955 -0.1)
(-1.01856 0.566275 0.1)
(-1.07088 0.569548 -0.1)
(-1.15352 -0.374938 -0.1)
(-1.04484 0.568019 0.1)
(-1.07088 0.569548 0.1)
(-1.09669 0.570861 -0.1)
(-1.17916 -0.37175 -0.1)
(-1.12225 0.571959 -0.1)
(-1.20452 -0.368392 -0.1)
(-1.09669 0.570861 0.1)
(-1.14757 0.57284 -0.1)
(-1.22961 -0.364863 -0.1)
(-1.12225 0.571959 0.1)
(-1.17265 0.573505 -0.1)
(-1.25442 -0.361165 -0.1)
(-1.14757 0.57284 0.1)
(-1.19746 0.573954 -0.1)
(-1.27894 -0.357297 -0.1)
(-1.17265 0.573505 0.1)
(-1.22202 0.574186 -0.1)
(-1.30317 -0.353261 -0.1)
(-1.19746 0.573954 0.1)
(-1.24633 0.574202 -0.1)
(-1.3271 -0.349057 -0.1)
(-1.22202 0.574186 0.1)
(-1.27036 0.574002 -0.1)
(-1.24633 0.574202 0.1)
(-1.35074 -0.344686 -0.1)
(-1.29413 0.573586 -0.1)
(-1.27036 0.574002 0.1)
(-1.37407 -0.340149 -0.1)
(-1.31762 0.572954 -0.1)
(-1.3971 -0.335447 -0.1)
(-1.29413 0.573586 0.1)
(-1.34084 0.572108 -0.1)
(-1.41982 -0.330581 -0.1)
(-1.31762 0.572954 0.1)
(-1.36378 0.571047 -0.1)
(-1.34084 0.572108 0.1)
(-1.44222 -0.325553 -0.1)
(-1.38644 0.569773 -0.1)
(-1.46431 -0.320364 -0.1)
(-1.36378 0.571047 0.1)
(-1.40881 0.568286 -0.1)
(-1.48608 -0.315016 -0.1)
(-1.38644 0.569773 0.1)
(-1.50753 -0.309509 -0.1)
(-1.43088 0.566587 -0.1)
(-1.40881 0.568286 0.1)
(-1.52866 -0.303845 -0.1)
(-1.45267 0.564677 -0.1)
(-1.43088 0.566587 0.1)
(-1.47416 0.562558 -0.1)
(-1.54945 -0.298027 -0.1)
(-1.45267 0.564677 0.1)
(-1.49534 0.560231 -0.1)
(-1.56991 -0.292056 -0.1)
(-1.47416 0.562558 0.1)
(-1.51623 0.557696 -0.1)
(-1.59004 -0.285933 -0.1)
(-1.49534 0.560231 0.1)
(-1.5368 0.554956 -0.1)
(-1.60982 -0.279662 -0.1)
(-1.51623 0.557696 0.1)
(-1.55707 0.552012 -0.1)
(-1.62927 -0.273243 -0.1)
(-1.5368 0.554956 0.1)
(-1.64837 -0.26668 -0.1)
(-1.57702 0.548865 -0.1)
(-1.55707 0.552012 0.1)
(-1.59665 0.545517 -0.1)
(-1.57702 0.548865 0.1)
(-1.66713 -0.259973 -0.1)
(-1.61597 0.54197 -0.1)
(-1.68553 -0.253127 -0.1)
(-1.59665 0.545517 0.1)
(-1.63496 0.538226 -0.1)
(-1.70358 -0.246142 -0.1)
(-1.61597 0.54197 0.1)
(-1.65362 0.534287 -0.1)
(-1.72128 -0.239021 -0.1)
(-1.63496 0.538226 0.1)
(-1.67196 0.530155 -0.1)
(-1.73862 -0.231768 -0.1)
(-1.65362 0.534287 0.1)
(-1.7556 -0.224383 -0.1)
(-1.68996 0.525831 -0.1)
(-1.67196 0.530155 0.1)
(-1.77222 -0.216871 -0.1)
(-1.68996 0.525831 0.1)
(-1.70763 0.521319 -0.1)
(-1.72496 0.516619 -0.1)
(-1.78847 -0.209234 -0.1)
(-1.70763 0.521319 0.1)
(-1.74195 0.511736 -0.1)
(-1.80435 -0.201475 -0.1)
(-1.72496 0.516619 0.1)
(-1.74195 0.511736 0.1)
(-1.81986 -0.193595 -0.1)
(-1.7586 0.50667 -0.1)
(-1.83501 -0.1856 -0.1)
(-1.7749 0.501425 -0.1)
(-1.7586 0.50667 0.1)
(-1.79085 0.496004 -0.1)
(-1.84977 -0.17749 -0.1)
(-1.7749 0.501425 0.1)
(-1.80645 0.490408 -0.1)
(-1.86416 -0.16927 -0.1)
(-1.79085 0.496004 0.1)
(-1.8217 0.48464 -0.1)
(-1.87818 -0.160943 -0.1)
(-1.80645 0.490408 0.1)
(-1.89181 -0.152512 -0.1)
(-1.83659 0.478704 -0.1)
(-1.8217 0.48464 0.1)
(-1.90506 -0.143979 -0.1)
(-1.85112 0.472602 -0.1)
(-1.83659 0.478704 0.1)
(-1.91793 -0.135348 -0.1)
(-1.85112 0.472602 0.1)
(-1.86529 0.466336 -0.1)
(-1.93041 -0.126623 -0.1)
(-1.87909 0.459911 -0.1)
(-1.86529 0.466336 0.1)
(-1.9425 -0.117807 -0.1)
(-1.87909 0.459911 0.1)
(-1.89253 0.453329 -0.1)
(-1.9056 0.446592 -0.1)
(-1.9542 -0.108903 -0.1)
(-1.89253 0.453329 0.1)
(-1.9056 0.446592 0.1)
(-1.9183 0.439705 -0.1)
(-1.96551 -0.0999154 -0.1)
(-1.97643 -0.0908467 -0.1)
(-1.93063 0.432671 -0.1)
(-1.9183 0.439705 0.1)
(-1.94259 0.425491 -0.1)
(-1.93063 0.432671 0.1)
(-1.98696 -0.0817009 -0.1)
(-1.95416 0.418171 -0.1)
(-1.99709 -0.0724815 -0.1)
(-1.94259 0.425491 0.1)
(-2.00682 -0.0631923 -0.1)
(-1.96536 0.410713 -0.1)
(-1.95416 0.418171 0.1)
(-1.96536 0.410713 0.1)
(-2.01616 -0.0538369 -0.1)
(-1.97618 0.403121 -0.1)
(-1.97618 0.403121 0.1)
(-2.02509 -0.044419 -0.1)
(-1.98661 0.395398 -0.1)
(-1.98661 0.395398 0.1)
(-2.03363 -0.0349425 -0.1)
(-1.99667 0.387548 -0.1)
(-2.00633 0.379573 -0.1)
(-1.99667 0.387548 0.1)
(-2.04176 -0.025411 -0.1)
(-2.01561 0.371479 -0.1)
(-2.00633 0.379573 0.1)
(-2.04949 -0.0158284 -0.1)
(-2.05682 -0.00619855 -0.1)
(-2.01561 0.371479 0.1)
(-2.0245 0.363268 -0.1)
(-2.0245 0.363268 0.1)
(-2.033 0.354944 -0.1)
(-2.06375 0.00347462 -0.1)
(-2.033 0.354944 0.1)
(-2.07026 0.0131872 -0.1)
(-2.0411 0.346511 -0.1)
(-2.04881 0.337972 -0.1)
(-2.0411 0.346511 0.1)
(-2.07638 0.0229353 -0.1)
(-2.08208 0.032715 -0.1)
(-2.05613 0.329331 -0.1)
(-2.04881 0.337972 0.1)
(-2.08738 0.0425221 -0.1)
(-2.05613 0.329331 0.1)
(-2.06305 0.320593 -0.1)
(-2.06957 0.311761 -0.1)
(-2.06305 0.320593 0.1)
(-2.09227 0.0523528 -0.1)
(-2.07569 0.302838 -0.1)
(-2.06957 0.311761 0.1)
(-2.09675 0.0622031 -0.1)
(-2.08142 0.293829 -0.1)
(-2.07569 0.302838 0.1)
(-2.10082 0.0720688 -0.1)
(-2.08142 0.293829 0.1)
(-2.08674 0.284738 -0.1)
(-2.10448 0.0819459 -0.1)
(-2.10773 0.0918304 -0.1)
(-2.09166 0.275569 -0.1)
(-2.08674 0.284738 0.1)
(-2.11057 0.101718 -0.1)
(-2.09166 0.275569 0.1)
(-2.09617 0.266325 -0.1)
(-2.11301 0.111605 -0.1)
(-2.10028 0.25701 -0.1)
(-2.09617 0.266325 0.1)
(-2.10028 0.25701 0.1)
(-2.10399 0.247629 -0.1)
(-2.11503 0.121487 -0.1)
(-2.11664 0.13136 -0.1)
(-2.10399 0.247629 0.1)
(-2.10729 0.238186 -0.1)
(-2.11784 0.141219 -0.1)
(-2.10729 0.238186 0.1)
(-2.11018 0.228684 -0.1)
(-2.11863 0.151062 -0.1)
(-2.11018 0.228684 0.1)
(-2.11267 0.219129 -0.1)
(-2.119 0.160883 -0.1)
(-2.11267 0.219129 0.1)
(-2.11475 0.209522 -0.1)
(-2.11897 0.170678 -0.1)
(-2.11475 0.209522 0.1)
(-2.11642 0.19987 -0.1)
(-2.11853 0.180444 -0.1)
(-2.11642 0.19987 0.1)
(-2.11768 0.190176 -0.1)
(-2.11768 0.190176 0.1)
(-2.11853 0.180444 0.1)
(-2.11897 0.170678 0.1)
(-2.119 0.160883 0.1)
(-2.11863 0.151062 0.1)
(-2.11784 0.141219 0.1)
(-2.11664 0.13136 0.1)
(-2.11503 0.121487 0.1)
(-2.11301 0.111605 0.1)
(-2.11057 0.101718 0.1)
(-2.10773 0.0918304 0.1)
(-2.10448 0.0819459 0.1)
(-2.10082 0.0720688 0.1)
(-2.09675 0.0622031 0.1)
(-2.09227 0.0523528 0.1)
(-2.08738 0.0425221 0.1)
(-2.08208 0.032715 0.1)
(-2.07638 0.0229353 0.1)
(-2.07026 0.0131872 0.1)
(-2.06375 0.00347462 0.1)
(-2.05682 -0.00619855 0.1)
(-2.04949 -0.0158284 0.1)
(-2.04176 -0.025411 0.1)
(-2.03363 -0.0349425 0.1)
(-2.02509 -0.044419 0.1)
(-2.01616 -0.0538369 0.1)
(-2.00682 -0.0631923 0.1)
(-1.99709 -0.0724815 0.1)
(-1.98696 -0.0817009 0.1)
(-1.97643 -0.0908467 0.1)
(-1.96551 -0.0999154 0.1)
(-1.9542 -0.108903 0.1)
(-1.9425 -0.117807 0.1)
(-1.93041 -0.126623 0.1)
(-1.91793 -0.135348 0.1)
(-1.90506 -0.143979 0.1)
(-1.89181 -0.152512 0.1)
(-1.87818 -0.160943 0.1)
(-1.86416 -0.16927 0.1)
(-1.84977 -0.17749 0.1)
(-1.83501 -0.1856 0.1)
(-1.81986 -0.193595 0.1)
(-1.80435 -0.201475 0.1)
(-1.78847 -0.209234 0.1)
(-1.77222 -0.216871 0.1)
(-1.7556 -0.224383 0.1)
(-1.73862 -0.231768 0.1)
(-1.72128 -0.239021 0.1)
(-1.70358 -0.246142 0.1)
(-1.68553 -0.253127 0.1)
(-1.66713 -0.259973 0.1)
(-1.64837 -0.26668 0.1)
(-1.62927 -0.273243 0.1)
(-1.60982 -0.279662 0.1)
(-1.59004 -0.285933 0.1)
(-1.56991 -0.292056 0.1)
(-1.54945 -0.298027 0.1)
(-1.52866 -0.303845 0.1)
(-1.50753 -0.309509 0.1)
(-1.48608 -0.315016 0.1)
(-1.46431 -0.320364 0.1)
(-1.44222 -0.325553 0.1)
(-1.41982 -0.330581 0.1)
(-1.3971 -0.335447 0.1)
(-1.37407 -0.340149 0.1)
(-1.35074 -0.344686 0.1)
(-1.3271 -0.349057 0.1)
(-1.30317 -0.353261 0.1)
(-1.27894 -0.357297 0.1)
(-1.25442 -0.361165 0.1)
(-1.22961 -0.364863 0.1)
(-1.20452 -0.368392 0.1)
(-1.17916 -0.37175 0.1)
(-1.15352 -0.374938 0.1)
(-1.1276 -0.377955 0.1)
(-1.10142 -0.380801 0.1)
(-1.07498 -0.383475 0.1)
(-1.04828 -0.385979 0.1)
(-1.02133 -0.388312 0.1)
(-0.994126 -0.390474 0.1)
(-0.966679 -0.392466 0.1)
(-0.938992 -0.394288 0.1)
(-0.911069 -0.395942 0.1)
(-0.882916 -0.397427 0.1)
(-0.854537 -0.398744 0.1)
(-0.825937 -0.399895 0.1)
(-0.79712 -0.400881 0.1)
(-0.768093 -0.401702 0.1)
(-0.738859 -0.40236 0.1)
(-0.709425 -0.402857 0.1)
(-0.679795 -0.403193 0.1)
(-0.649974 -0.403371 0.1)
(-0.619968 -0.403393 0.1)
(-0.589783 -0.403259 0.1)
(-0.559424 -0.402973 0.1)
(-0.528896 -0.402536 0.1)
(-0.498206 -0.40195 0.1)
(-0.467359 -0.401218 0.1)
(-0.43636 -0.400342 0.1)
(-0.405217 -0.399325 0.1)
(-0.373935 -0.398169 0.1)
(-0.342519 -0.396878 0.1)
(-0.310977 -0.395453 0.1)
(-0.279315 -0.393898 0.1)
(-0.247538 -0.392216 0.1)
(-0.215655 -0.39041 0.1)
(-0.18367 -0.388483 0.1)
(-0.151591 -0.386439 0.1)
(-0.119425 -0.384282 0.1)
(-0.0871785 -0.382014 0.1)
(-0.0548587 -0.379639 0.1)
(-0.0224725 -0.377161 0.1)
(0.00997263 -0.374584 0.1)
(0.0424695 -0.371912 0.1)
(0.0750106 -0.369149 0.1)
(0.107588 -0.366299 0.1)
(0.140195 -0.363365 0.1)
(0.172823 -0.360353 0.1)
(0.205465 -0.357266 0.1)
(0.238112 -0.354108 0.1)
(0.270756 -0.350885 0.1)
(0.303389 -0.3476 0.1)
(0.336002 -0.344258 0.1)
(0.368588 -0.340863 0.1)
(0.401137 -0.33742 0.1)
(0.433641 -0.333934 0.1)
(0.46609 -0.330409 0.1)
(0.498477 -0.32685 0.1)
(0.530791 -0.323261 0.1)
(0.563024 -0.319647 0.1)
(0.595166 -0.316012 0.1)
(0.627208 -0.312362 0.1)
(0.65914 -0.308701 0.1)
(0.690952 -0.305034 0.1)
(0.722635 -0.301365 0.1)
(0.754179 -0.297698 0.1)
(0.785573 -0.294038 0.1)
(0.816807 -0.29039 0.1)
(0.847872 -0.286758 0.1)
(0.878756 -0.283146 0.1)
(0.90945 -0.279559 0.1)
(0.939942 -0.276001 0.1)
(0.970221 -0.272476 0.1)
(1.00028 -0.268987 0.1)
(1.0301 -0.26554 0.1)
(1.05968 -0.262137 0.1)
(1.089 -0.258782 0.1)
(1.11806 -0.255479 0.1)
(1.14683 -0.252231 0.1)
(1.17532 -0.249041 0.1)
(1.20351 -0.245913 0.1)
(1.23138 -0.24285 0.1)
(1.25893 -0.239854 0.1)
(1.28614 -0.236927 0.1)
(1.31301 -0.234073 0.1)
(1.33952 -0.231294 0.1)
(1.36566 -0.22859 0.1)
(1.39142 -0.225965 0.1)
(1.41679 -0.22342 0.1)
(1.44175 -0.220957 0.1)
(1.46629 -0.218576 0.1)
(1.49041 -0.216278 0.1)
(1.51409 -0.214064 0.1)
(1.53732 -0.211935 0.1)
(1.56009 -0.20989 0.1)
(1.58238 -0.20793 0.1)
(1.60419 -0.206055 0.1)
(1.62551 -0.204263 0.1)
(1.64632 -0.202555 0.1)
(1.66662 -0.200928 0.1)
(1.68639 -0.199383 0.1)
(1.70562 -0.197916 0.1)
(1.72431 -0.196527 0.1)
(1.74244 -0.195213 0.1)
(1.76001 -0.193972 0.1)
(1.77699 -0.192801 0.1)
(1.7934 -0.191698 0.1)
(1.80921 -0.19066 0.1)
(1.82441 -0.189682 0.1)
(1.83901 -0.188762 0.1)
(1.85298 -0.187895 0.1)
(1.86633 -0.187079 0.1)
(1.87904 -0.186308 0.1)
(1.89111 -0.185578 0.1)
(1.90253 -0.184884 0.1)
(1.9133 -0.184222 0.1)
(1.92341 -0.183587 0.1)
(1.93284 -0.182973 0.1)
(1.94161 -0.182375 0.1)
(1.9497 -0.181788 0.1)
(1.9571 -0.181206 0.1)
(1.96382 -0.180623 0.1)
(1.96985 -0.180034 0.1)
(1.97519 -0.179432 0.1)
(1.97983 -0.178812 0.1)
(1.98377 -0.178167 0.1)
(1.98701 -0.177492 0.1)
(1.98955 -0.17678 0.1)
(1.99139 -0.176025 0.1)
)

// edges

795
(
(2 0)
(0 3)
(1 0)
(4 1)
(5 2)
(3 6)
(7 5)
(6 8)
(9 4)
(10 7)
(8 11)
(12 9)
(13 10)
(11 14)
(15 12)
(16 13)
(14 17)
(18 15)
(19 16)
(17 20)
(21 18)
(22 19)
(20 23)
(24 21)
(25 22)
(23 26)
(27 24)
(28 25)
(26 29)
(30 27)
(31 28)
(29 32)
(33 30)
(34 31)
(32 35)
(36 33)
(37 34)
(35 38)
(39 36)
(40 37)
(38 41)
(42 39)
(43 40)
(41 44)
(45 42)
(46 43)
(44 47)
(48 45)
(49 46)
(47 50)
(51 48)
(52 49)
(50 53)
(54 51)
(55 52)
(53 56)
(57 54)
(58 55)
(56 59)
(60 57)
(61 58)
(59 62)
(63 60)
(64 61)
(62 65)
(66 63)
(67 64)
(65 68)
(69 66)
(70 67)
(68 71)
(72 69)
(73 70)
(71 74)
(75 72)
(76 73)
(74 77)
(78 75)
(79 76)
(77 80)
(81 78)
(82 79)
(80 83)
(84 81)
(85 82)
(83 86)
(87 84)
(88 85)
(86 89)
(90 87)
(91 88)
(89 92)
(93 90)
(94 91)
(92 95)
(96 93)
(97 94)
(95 98)
(99 96)
(100 97)
(98 101)
(102 99)
(103 100)
(101 104)
(105 102)
(106 103)
(104 107)
(108 105)
(109 106)
(107 110)
(111 108)
(112 109)
(110 113)
(114 111)
(115 112)
(113 116)
(117 114)
(118 115)
(116 119)
(120 117)
(121 118)
(119 122)
(123 120)
(124 121)
(122 125)
(126 123)
(127 124)
(125 128)
(129 126)
(130 127)
(128 131)
(132 129)
(133 130)
(131 134)
(135 132)
(136 133)
(134 137)
(138 135)
(139 136)
(137 140)
(141 138)
(142 139)
(140 143)
(144 141)
(145 142)
(143 146)
(147 144)
(148 145)
(146 149)
(150 147)
(151 148)
(149 152)
(153 150)
(154 151)
(152 155)
(156 153)
(157 154)
(155 158)
(159 156)
(160 157)
(158 161)
(162 159)
(163 160)
(161 164)
(165 162)
(166 163)
(164 167)
(168 165)
(169 166)
(167 170)
(171 168)
(172 169)
(170 173)
(174 171)
(175 172)
(173 176)
(177 174)
(178 175)
(176 179)
(180 177)
(181 178)
(179 182)
(183 180)
(184 181)
(182 185)
(186 183)
(187 184)
(185 188)
(189 186)
(190 187)
(188 191)
(192 189)
(193 190)
(191 194)
(195 192)
(196 193)
(194 197)
(198 195)
(199 196)
(197 200)
(201 198)
(202 199)
(200 203)
(204 201)
(205 202)
(203 206)
(207 204)
(208 205)
(206 209)
(210 207)
(211 208)
(209 212)
(213 210)
(214 211)
(212 215)
(216 213)
(217 214)
(215 218)
(219 216)
(220 217)
(218 221)
(222 219)
(223 220)
(221 224)
(225 222)
(226 223)
(224 227)
(228 225)
(229 226)
(227 230)
(231 228)
(232 229)
(230 233)
(234 231)
(235 232)
(233 236)
(237 234)
(238 235)
(236 239)
(240 237)
(241 238)
(239 242)
(243 240)
(244 241)
(242 245)
(246 243)
(247 244)
(245 248)
(249 246)
(250 247)
(248 251)
(252 249)
(253 250)
(251 254)
(255 252)
(256 253)
(254 257)
(258 255)
(259 256)
(257 260)
(261 258)
(262 259)
(260 263)
(264 261)
(265 262)
(263 266)
(267 264)
(268 265)
(266 269)
(270 267)
(271 268)
(269 272)
(273 270)
(274 271)
(272 275)
(276 273)
(277 274)
(275 278)
(279 276)
(280 277)
(278 281)
(282 279)
(283 280)
(281 284)
(285 282)
(286 283)
(284 287)
(288 285)
(289 286)
(287 290)
(291 288)
(292 289)
(290 293)
(294 291)
(295 292)
(293 296)
(297 294)
(298 295)
(296 299)
(300 297)
(301 300)
(302 298)
(299 303)
(304 302)
(303 305)
(306 301)
(307 306)
(305 308)
(309 304)
(310 309)
(308 311)
(312 307)
(313 312)
(311 314)
(315 310)
(316 315)
(317 313)
(314 318)
(319 317)
(318 320)
(321 316)
(322 321)
(320 323)
(324 319)
(325 322)
(323 326)
(327 324)
(328 325)
(326 329)
(330 327)
(331 330)
(329 332)
(333 328)
(334 333)
(332 335)
(336 331)
(337 334)
(338 336)
(335 339)
(340 337)
(341 338)
(339 342)
(343 340)
(342 344)
(345 341)
(346 343)
(344 347)
(348 345)
(349 346)
(347 350)
(351 348)
(352 349)
(350 353)
(354 351)
(355 352)
(353 356)
(357 354)
(358 355)
(356 359)
(360 357)
(361 358)
(359 362)
(363 360)
(364 361)
(362 365)
(366 363)
(367 364)
(365 368)
(369 366)
(370 367)
(368 371)
(372 369)
(373 370)
(371 374)
(375 372)
(376 373)
(374 377)
(378 375)
(379 378)
(380 376)
(377 381)
(382 380)
(381 383)
(384 379)
(385 382)
(383 386)
(387 384)
(388 385)
(386 389)
(390 387)
(391 388)
(389 392)
(393 390)
(394 391)
(392 395)
(396 393)
(397 394)
(395 398)
(399 396)
(400 397)
(401 399)
(398 402)
(403 400)
(404 401)
(402 405)
(406 403)
(405 407)
(408 404)
(409 406)
(407 410)
(411 408)
(412 409)
(413 411)
(410 414)
(415 412)
(414 416)
(417 413)
(418 415)
(416 419)
(420 417)
(419 421)
(422 418)
(423 420)
(421 424)
(425 422)
(426 423)
(427 425)
(424 428)
(429 426)
(430 427)
(428 431)
(432 429)
(433 430)
(431 434)
(435 432)
(436 433)
(434 437)
(438 435)
(439 436)
(437 440)
(441 438)
(440 442)
(443 439)
(444 441)
(445 443)
(446 444)
(442 447)
(448 445)
(447 449)
(450 446)
(451 448)
(449 452)
(453 450)
(454 451)
(452 455)
(456 453)
(457 454)
(455 458)
(459 456)
(458 460)
(461 457)
(462 459)
(460 463)
(464 462)
(465 461)
(466 465)
(463 467)
(468 464)
(469 466)
(467 470)
(471 468)
(472 471)
(470 473)
(474 469)
(473 475)
(476 474)
(477 472)
(478 476)
(475 479)
(480 477)
(481 478)
(479 482)
(483 480)
(484 481)
(482 485)
(486 483)
(485 487)
(488 484)
(489 486)
(487 490)
(491 488)
(492 489)
(490 493)
(494 492)
(495 491)
(493 496)
(497 495)
(498 494)
(496 499)
(500 498)
(501 497)
(502 501)
(499 503)
(504 500)
(505 504)
(506 502)
(503 507)
(507 508)
(509 506)
(510 505)
(511 509)
(512 510)
(508 513)
(514 511)
(513 515)
(516 512)
(515 517)
(518 514)
(519 516)
(520 519)
(517 521)
(522 518)
(523 520)
(521 524)
(525 522)
(526 523)
(524 527)
(528 525)
(529 528)
(530 526)
(527 531)
(532 529)
(533 530)
(531 534)
(534 535)
(536 533)
(537 532)
(538 536)
(539 537)
(535 540)
(541 538)
(540 542)
(543 539)
(544 543)
(545 541)
(542 546)
(546 547)
(548 544)
(549 545)
(547 550)
(551 549)
(552 548)
(553 552)
(554 551)
(550 555)
(556 553)
(557 554)
(555 558)
(559 556)
(560 557)
(558 561)
(562 560)
(563 559)
(561 564)
(564 565)
(566 563)
(567 562)
(565 568)
(569 567)
(570 566)
(568 571)
(572 570)
(573 569)
(574 573)
(575 572)
(571 576)
(576 577)
(578 574)
(579 575)
(577 580)
(581 578)
(582 579)
(580 583)
(584 581)
(585 582)
(583 586)
(587 584)
(588 585)
(586 589)
(590 587)
(591 588)
(589 592)
(593 590)
(594 591)
(592 594)
(595 593)
(596 595)
(597 596)
(598 597)
(599 598)
(600 599)
(601 600)
(602 601)
(603 602)
(604 603)
(605 604)
(606 605)
(607 606)
(608 607)
(609 608)
(610 609)
(611 610)
(612 611)
(613 612)
(614 613)
(615 614)
(616 615)
(617 616)
(618 617)
(619 618)
(620 619)
(621 620)
(622 621)
(623 622)
(624 623)
(625 624)
(626 625)
(627 626)
(628 627)
(629 628)
(630 629)
(631 630)
(632 631)
(633 632)
(634 633)
(635 634)
(636 635)
(637 636)
(638 637)
(639 638)
(640 639)
(641 640)
(642 641)
(643 642)
(644 643)
(645 644)
(646 645)
(647 646)
(648 647)
(649 648)
(650 649)
(651 650)
(652 651)
(653 652)
(654 653)
(655 654)
(656 655)
(657 656)
(658 657)
(659 658)
(660 659)
(661 660)
(662 661)
(663 662)
(664 663)
(665 664)
(666 665)
(667 666)
(668 667)
(669 668)
(670 669)
(671 670)
(672 671)
(673 672)
(674 673)
(675 674)
(676 675)
(677 676)
(678 677)
(679 678)
(680 679)
(681 680)
(682 681)
(683 682)
(684 683)
(685 684)
(686 685)
(687 686)
(688 687)
(689 688)
(690 689)
(691 690)
(692 691)
(693 692)
(694 693)
(695 694)
(696 695)
(697 696)
(698 697)
(699 698)
(700 699)
(701 700)
(702 701)
(703 702)
(704 703)
(705 704)
(706 705)
(707 706)
(708 707)
(709 708)
(710 709)
(711 710)
(712 711)
(713 712)
(714 713)
(715 714)
(716 715)
(717 716)
(718 717)
(719 718)
(720 719)
(721 720)
(722 721)
(723 722)
(724 723)
(725 724)
(726 725)
(727 726)
(728 727)
(729 728)
(730 729)
(731 730)
(732 731)
(733 732)
(734 733)
(735 734)
(736 735)
(737 736)
(738 737)
(739 738)
(740 739)
(741 740)
(742 741)
(743 742)
(744 743)
(745 744)
(746 745)
(747 746)
(748 747)
(749 748)
(750 749)
(751 750)
(752 751)
(753 752)
(754 753)
(755 754)
(756 755)
(757 756)
(758 757)
(759 758)
(760 759)
(761 760)
(762 761)
(763 762)
(764 763)
(765 764)
(766 765)
(767 766)
(768 767)
(769 768)
(770 769)
(771 770)
(772 771)
(773 772)
(774 773)
(775 774)
(776 775)
(777 776)
(778 777)
(779 778)
(780 779)
(781 780)
(782 781)
(783 782)
(784 783)
(785 784)
(786 785)
(787 786)
(788 787)
(789 788)
(790 789)
(791 790)
(792 791)
(1 793)
(793 792)
)

// concaveStart mixedStart nonFeatureStart
2 2 2
// internalStart flatStart openStart multipleStart
795 795 795 795
// normals

1584
(
(-0 0 -1)
(0.836768 0.547558 -0)
(0.728951 -0.684566 0)
(0.836768 0.547558 -0)
(0 0 1)
(-0 0 -1)
(0.535088 0.844796 -0)
(0 0 -1)
(0.380291 -0.924867 0)
(-0 0 -1)
(0.433107 0.901343 -0)
(0 0 -1)
(0.270013 -0.962857 0)
(0.535088 0.844796 -0)
(0 0 1)
(-0 0 -1)
(0.370879 0.928681 -0)
(0 0 -1)
(0.203967 -0.978978 0)
(0.433107 0.901343 -0)
(0 0 1)
(-0 0 -1)
(0.330321 0.943869 -0)
(0 0 -1)
(0.16141 -0.986887 0)
(0.370879 0.928681 -0)
(0 0 1)
(-0 0 -1)
(0.302581 0.953124 -0)
(0 0 -1)
(0.132473 -0.991187 0)
(0.330321 0.943869 -0)
(0 0 1)
(-0 0 -1)
(0.282897 0.95915 -0)
(0 0 -1)
(0.112048 -0.993703 0)
(0.302581 0.953124 -0)
(0 0 1)
(-0 0 -1)
(0.268614 0.963248 -0)
(0 0 -1)
(0.0972649 -0.995259 0)
(0.282897 0.95915 -0)
(0 0 1)
(-0 0 -1)
(0.258092 0.96612 -0)
(0 0 -1)
(0.0864035 -0.99626 0)
(0.268614 0.963248 -0)
(0 0 1)
(-0 0 -1)
(0.250278 0.968174 -0)
(0 0 -1)
(0.0783557 -0.996925 0)
(0.258092 0.96612 -0)
(0 0 1)
(-0 0 -1)
(0.244495 0.969651 -0)
(0 0 -1)
(0.0724007 -0.997376 0)
(0.250278 0.968174 -0)
(0 0 1)
(-0 0 -1)
(0.240251 0.970711 -0)
(0 0 -1)
(0.0680388 -0.997683 0)
(0.244495 0.969651 -0)
(0 0 1)
(-0 0 -1)
(0.237203 0.97146 -0)
(0 0 -1)
(0.0649072 -0.997891 0)
(0.240251 0.970711 -0)
(0 0 1)
(-0 0 -1)
(0.235103 0.971971 -0)
(0 0 -1)
(0.0627484 -0.998029 0)
(0.237203 0.97146 -0)
(0 0 1)
(-0 0 -1)
(0.233755 0.972296 -0)
(0 0 -1)
(0.0613669 -0.998115 0)
(0.235103 0.971971 -0)
(0 0 1)
(-0 0 -1)
(0.233019 0.972472 -0)
(0 0 -1)